HPI
     RDKit          3D

 32 33  0  0  0  0  0  0  0  0999 V2000
   53.8990   40.0720   26.8770 C   0  0  0  0  0  0  0  0  0  0  0  0
   55.0180   39.2040   26.8350 C   0  0  0  0  0  0  0  0  0  0  0  0
   54.9360   37.9620   26.1470 C   0  0  0  0  0  0  0  0  0  0  0  0
   53.7310   37.5900   25.4980 C   0  0  0  0  0  0  0  0  0  0  0  0
   52.6070   38.4670   25.5430 C   0  0  0  0  0  0  0  0  0  0  0  0
   52.6920   39.7040   26.2300 C   0  0  0  0  0  0  0  0  0  0  0  0
   53.6430   36.2510   24.7540 C   0  0  0  0  0  0  0  0  0  0  0  0
   53.4290   36.4180   23.2170 C   0  0  2  0  0  0  0  0  0  0  0  0
   53.3260   35.0330   22.6350 N   0  0  0  0  0  0  0  0  0  0  0  0
   53.1180   35.0980   21.1400 C   0  0  1  0  0  0  0  0  0  0  0  0
   53.0510   33.6160   20.6300 C   0  0  0  0  0  0  0  0  0  0  0  0
   52.8520   33.5280   19.0960 C   0  0  0  0  0  0  0  0  0  0  0  0
   52.7080   32.1050   18.6360 C   0  0  0  0  0  0  0  0  0  0  0  0
   51.4100   31.5170   18.6750 C   0  0  0  0  0  0  0  0  0  0  0  0
   51.2140   30.1880   18.2400 C   0  0  0  0  0  0  0  0  0  0  0  0
   52.3170   29.4400   17.7620 C   0  0  0  0  0  0  0  0  0  0  0  0
   53.6130   30.0220   17.7190 C   0  0  0  0  0  0  0  0  0  0  0  0
   53.8120   31.3590   18.1570 C   0  0  0  0  0  0  0  0  0  0  0  0
   51.7240   35.7140   20.8030 C   0  0  0  0  0  0  0  0  0  0  0  0
   50.5960   35.2690   21.4190 O   0  0  0  0  0  0  0  0  0  0  0  0
   51.5700   36.7070   19.8750 O   0  0  0  0  0  0  0  0  0  0  0  0
   54.6260   37.1460   22.6030 C   0  0  0  0  0  0  0  0  0  0  0  0
   54.5600   38.3700   22.3640 O   0  0  0  0  0  0  0  0  0  0  0  0
   55.7980   36.3800   22.3080 N   0  0  0  0  0  0  0  0  0  0  0  0
   56.9580   37.0160   21.7130 C   0  0  2  0  0  0  0  0  0  0  0  0
   56.8580   36.4910   20.2550 C   0  0  0  0  0  0  0  0  0  0  0  0
   56.4770   35.1620   20.0530 O   0  0  0  0  0  0  0  0  0  0  0  0
   57.1520   37.2820   19.1370 N   0  0  0  0  0  0  0  0  0  0  0  0
   58.2250   36.4810   22.4950 C   0  0  0  0  0  0  0  0  0  0  0  0
   59.5930   37.1410   22.1320 C   0  0  0  0  0  0  0  0  0  0  0  0
   59.6720   38.3840   21.5320 O   0  0  0  0  0  0  0  0  0  0  0  0
   60.7750   36.4830   22.3900 O   0  0  0  0  0  0  0  0  0  0  0  0
  2  1  2  0
  3  2  1  0
  4  3  2  0
  5  4  1  0
  6  5  2  0
  6  1  1  0
  7  4  1  0
  8  7  1  1
  9  8  1  0
 10  9  1  0
 10 11  1  1
 12 11  1  0
 13 12  1  0
 14 13  2  0
 15 14  1  0
 16 15  2  0
 17 16  1  0
 18 17  2  0
 18 13  1  0
 19 10  1  0
 20 19  2  0
 21 19  1  0
 22  8  1  0
 23 22  2  0
 24 22  1  0
 25 24  1  0
 26 25  1  0
 27 26  2  0
 28 26  1  0
 25 29  1  1
 30 29  1  0
 31 30  2  0
 32 30  1  0
M  END
$$$$
