RDF
     RDKit          3D

 37 39  0  0  0  0  0  0  0  0999 V2000
   53.5850   34.4130   19.1790 C   0  0  1  0  0  0  0  0  0  0  0  0
   52.4470   34.2230   19.9580 O   0  0  0  0  0  0  0  0  0  0  0  0
   54.3300   33.0700   18.9250 C   0  0  2  0  0  0  0  0  0  0  0  0
   55.5910   33.3190   18.3370 O   0  0  0  0  0  0  0  0  0  0  0  0
   53.4740   32.1430   18.0230 C   0  0  2  0  0  0  0  0  0  0  0  0
   54.1780   30.8990   17.7810 O   0  0  0  0  0  0  0  0  0  0  0  0
   53.1160   32.8950   16.7090 C   0  0  1  0  0  0  0  0  0  0  0  0
   52.2560   32.0640   15.8900 O   0  0  0  0  0  0  0  0  0  0  0  0
   52.3830   34.2010   17.0730 C   0  0  1  0  0  0  0  0  0  0  0  0
   53.1960   35.0340   17.9230 O   0  0  0  0  0  0  0  0  0  0  0  0
   52.0260   34.9780   15.8240 C   0  0  0  0  0  0  0  0  0  0  0  0
   51.8710   35.2640   20.9810 P   0  0  0  0  0  0  0  0  0  0  0  0
   51.7600   36.6030   20.3130 O   0  0  0  0  0  0  0  0  0  0  0  0
   50.6590   34.7220   21.5520 O   0  0  0  0  0  0  0  0  0  0  0  0
   53.0420   35.4040   22.1860 N   0  0  0  0  0  0  0  0  0  0  0  0
   53.2820   36.7030   22.9140 C   0  0  2  0  0  0  0  0  0  0  0  0
   54.2520   37.5490   22.1160 C   0  0  0  0  0  0  0  0  0  0  0  0
   54.1860   38.7500   21.9510 O   0  0  0  0  0  0  0  0  0  0  0  0
   53.8900   36.4190   24.3110 C   0  0  0  0  0  0  0  0  0  0  0  0
   54.1720   37.6690   25.1680 C   0  0  2  0  0  0  0  0  0  0  0  0
   54.7710   37.1530   26.4750 C   0  0  0  0  0  0  0  0  0  0  0  0
   52.8640   38.4700   25.4690 C   0  0  0  0  0  0  0  0  0  0  0  0
   55.3570   36.8070   21.4910 N   0  0  0  0  0  0  0  0  0  0  0  0
   56.3240   37.5990   20.6680 C   0  0  2  0  0  0  0  0  0  0  0  0
   56.9710   36.6230   19.6340 C   0  0  0  0  0  0  0  0  0  0  0  0
   56.6440   35.4050   19.6420 O   0  0  0  0  0  0  0  0  0  0  0  0
   57.4050   38.2660   21.6310 C   0  0  0  0  0  0  0  0  0  0  0  0
   58.3910   37.2340   22.2120 C   0  0  0  0  0  0  0  0  0  0  0  0
   58.0880   36.1950   23.0610 C   0  0  0  0  0  0  0  0  0  0  0  0
   59.8090   37.1680   21.9700 C   0  0  0  0  0  0  0  0  0  0  0  0
   59.2330   35.4800   23.3640 N   0  0  0  0  0  0  0  0  0  0  0  0
   60.3250   36.0500   22.7070 C   0  0  0  0  0  0  0  0  0  0  0  0
   60.7290   37.9750   21.1710 C   0  0  0  0  0  0  0  0  0  0  0  0
   61.7220   35.6630   22.7100 C   0  0  0  0  0  0  0  0  0  0  0  0
   62.1090   37.6250   21.1510 C   0  0  0  0  0  0  0  0  0  0  0  0
   62.6050   36.4650   21.9240 C   0  0  0  0  0  0  0  0  0  0  0  0
   57.7840   37.1000   18.8490 O   0  0  0  0  0  0  0  0  0  0  0  0
  1  2  1  1
  3  1  1  0
  3  4  1  6
  5  3  1  0
  5  6  1  6
  7  5  1  0
  7  8  1  6
  9  7  1  0
 10  9  1  0
 10  1  1  0
  9 11  1  6
 12  2  1  0
 13 12  2  0
 14 12  1  0
 15 12  1  0
 16 15  1  0
 17 16  1  0
 18 17  2  0
 16 19  1  1
 20 19  1  0
 20 21  1  1
 22 20  1  0
 23 17  1  0
 24 23  1  0
 25 24  1  0
 26 25  2  0
 24 27  1  1
 28 27  1  0
 29 28  2  0
 30 28  1  0
 31 29  1  0
 32 31  1  0
 32 30  2  0
 33 30  1  0
 34 32  1  0
 35 33  2  0
 36 35  1  0
 36 34  2  0
 37 25  1  0
M  END
$$$$
