CXH
     RDKit          3D

 13 13  0  0  0  0  0  0  0  0999 V2000
   56.2070   36.9160   18.7530 C   0  0  0  0  0  0  0  0  0  0  0  0
   57.4530   38.7880   20.3730 C   0  0  0  0  0  0  0  0  0  0  0  0
   56.3410   38.1010   20.8680 C   0  0  0  0  0  0  0  0  0  0  0  0
   55.7010   37.1360   20.0730 C   0  0  0  0  0  0  0  0  0  0  0  0
   53.4000   37.0550   20.9850 C   0  0  0  0  0  0  0  0  0  0  0  0
   52.1460   36.3020   21.2860 C   0  0  0  0  0  0  0  0  0  0  0  0
   57.3100   37.6000   18.2680 C   0  0  0  0  0  0  0  0  0  0  0  0
   57.9350   38.5450   19.0640 C   0  0  0  0  0  0  0  0  0  0  0  0
   54.5510   36.4720   20.4690 N   0  0  0  0  0  0  0  0  0  0  0  0
   53.4310   38.2830   21.2190 O   0  0  0  0  0  0  0  0  0  0  0  0
   51.2730   35.9400   19.6890 S   0  0  0  0  0  0  0  0  0  0  0  0
   58.2390   39.9390   21.4130 Cl  0  0  0  0  0  0  0  0  0  0  0  0
   59.2900   39.3710   18.4410 Cl  0  0  0  0  0  0  0  0  0  0  0  0
  3  2  2  0
  4  3  1  0
  4  1  2  0
  6  5  1  0
  7  1  1  0
  8  7  2  0
  8  2  1  0
  9  5  1  0
  9  4  1  0
 10  5  2  0
 11  6  1  0
 12  2  1  0
 13  8  1  0
M  END
$$$$
