EEK
     RDKit          3D

 16 16  0  0  0  0  0  0  0  0999 V2000
   52.1880   35.8880   21.3970 C   0  0  0  0  0  0  0  0  0  0  0  0
   56.4430   35.5760   18.0850 C   0  0  0  0  0  0  0  0  0  0  0  0
   58.1250   36.7170   16.7650 C   0  0  0  0  0  0  0  0  0  0  0  0
   58.1240   37.7320   17.7100 C   0  0  0  0  0  0  0  0  0  0  0  0
   57.2950   37.6870   18.8400 C   0  0  0  0  0  0  0  0  0  0  0  0
   56.4270   36.5950   19.0770 C   0  0  0  0  0  0  0  0  0  0  0  0
   54.5660   35.5360   20.5320 C   0  0  0  0  0  0  0  0  0  0  0  0
   53.6570   35.6000   21.7510 C   0  0  0  0  0  0  0  0  0  0  0  0
   57.2740   35.6330   16.9560 C   0  0  0  0  0  0  0  0  0  0  0  0
   55.5300   36.5510   20.2520 N   0  0  0  0  0  0  0  0  0  0  0  0
   51.1580   35.0210   21.8750 N   0  0  0  0  0  0  0  0  0  0  0  0
   49.8940   35.3540   21.5330 O   0  0  0  0  0  0  0  0  0  0  0  0
   51.9300   36.8570   20.7110 O   0  0  0  0  0  0  0  0  0  0  0  0
   54.4520   34.6020   19.7640 O   0  0  0  0  0  0  0  0  0  0  0  0
   59.1520   36.7840   15.3710 Cl  0  0  0  0  0  0  0  0  0  0  0  0
   59.1900   39.0830   17.4580 Cl  0  0  0  0  0  0  0  0  0  0  0  0
  4  3  1  0
  5  4  2  0
  6  5  1  0
  6  2  2  0
  8  1  1  0
  8  7  1  0
  9  3  2  0
  9  2  1  0
 10  7  1  0
 10  6  1  0
 11  1  1  0
 12 11  1  0
 13  1  2  0
 14  7  2  0
 15  3  1  0
 16  4  1  0
M  END
$$$$
