CI8
     RDKit          3D

 42 45  0  0  0  0  0  0  0  0999 V2000
   64.6530   35.0420   22.0770 C   0  0  0  0  0  0  0  0  0  0  0  0
   62.6030   36.2140   22.5140 C   0  0  0  0  0  0  0  0  0  0  0  0
   61.4080   35.5770   22.7560 C   0  0  0  0  0  0  0  0  0  0  0  0
   60.2380   36.1220   22.2270 C   0  0  0  0  0  0  0  0  0  0  0  0
   58.0720   36.8850   21.4100 C   0  0  0  0  0  0  0  0  0  0  0  0
   56.6350   36.9380   20.9840 C   0  0  0  0  0  0  0  0  0  0  0  0
   63.8140   35.7700   22.9780 O   0  0  0  0  0  0  0  0  0  0  0  0
   58.6090   35.5410   22.3810 S   0  0  0  0  0  0  0  0  0  0  0  0
   55.7290   36.4120   21.9870 N   0  0  0  0  0  0  0  0  0  0  0  0
   54.8540   37.1940   22.6380 C   0  0  0  0  0  0  0  0  0  0  0  0
   54.9680   38.4160   22.7310 O   0  0  0  0  0  0  0  0  0  0  0  0
   53.7270   36.4840   23.3760 C   0  0  1  0  0  0  0  0  0  0  0  0
   53.0030   35.4550   22.4860 C   0  0  0  0  0  0  0  0  0  0  0  0
   51.8580   35.9770   21.6270 C   0  0  0  0  0  0  0  0  0  0  0  0
   50.8260   35.2770   21.5610 O   0  0  0  0  0  0  0  0  0  0  0  0
   52.0270   37.0680   21.0270 O   0  0  0  0  0  0  0  0  0  0  0  0
   54.4030   35.9590   24.6600 C   0  0  0  0  0  0  0  0  0  0  0  0
   54.5240   37.2270   25.4710 C   0  0  0  0  0  0  0  0  0  0  0  0
   55.4410   37.6100   26.4420 C   0  0  0  0  0  0  0  0  0  0  0  0
   55.2860   38.8520   27.0360 C   0  0  0  0  0  0  0  0  0  0  0  0
   56.1490   39.2500   28.0020 F   0  0  0  0  0  0  0  0  0  0  0  0
   54.2550   39.6920   26.6830 C   0  0  0  0  0  0  0  0  0  0  0  0
   54.1300   40.8980   27.2860 F   0  0  0  0  0  0  0  0  0  0  0  0
   53.3470   39.3190   25.7160 C   0  0  0  0  0  0  0  0  0  0  0  0
   53.4980   38.0800   25.1120 C   0  0  0  0  0  0  0  0  0  0  0  0
   52.6930   37.4430   24.0110 C   0  0  0  0  0  0  0  0  0  0  0  0
   58.9900   37.7290   21.0400 N   0  0  0  0  0  0  0  0  0  0  0  0
   60.2500   37.3000   21.4660 C   0  0  0  0  0  0  0  0  0  0  0  0
   61.4670   37.9460   21.2310 C   0  0  0  0  0  0  0  0  0  0  0  0
   62.6400   37.4080   21.7450 C   0  0  0  0  0  0  0  0  0  0  0  0
   63.8810   37.9640   21.5730 O   0  0  0  0  0  0  0  0  0  0  0  0
   64.1240   38.8180   20.4430 C   0  0  0  0  0  0  0  0  0  0  0  0
   65.5960   39.1360   20.3730 C   0  0  0  0  0  0  0  0  0  0  0  0
   66.1660   39.6580   21.6850 C   0  0  0  0  0  0  0  0  0  0  0  0
   67.6480   40.0200   21.7310 N   0  0  1  0  0  0  0  0  0  0  0  0
   67.9330   41.0450   20.6630 C   0  0  0  0  0  0  0  0  0  0  0  0
   67.9120   40.6310   23.1070 C   0  0  0  0  0  0  0  0  0  0  0  0
   69.3540   40.7530   23.5540 C   0  0  0  0  0  0  0  0  0  0  0  0
   70.0250   41.7190   22.7670 O   0  0  0  0  0  0  0  0  0  0  0  0
   68.5180   38.7990   21.4570 C   0  0  0  0  0  0  0  0  0  0  0  0
   68.3750   37.6340   22.4160 C   0  0  0  0  0  0  0  0  0  0  0  0
   69.4740   36.7560   22.2720 O   0  0  0  0  0  0  0  0  0  0  0  0
  3  2  2  0
  4  3  1  0
  6  5  1  0
  7  2  1  0
  7  1  1  0
  8  5  1  0
  8  4  1  0
  9  6  1  0
 10  9  1  0
 11 10  2  0
 12 10  1  0
 12 13  1  6
 14 13  1  0
 15 14  2  0
 16 14  1  0
 17 12  1  0
 18 17  1  0
 19 18  2  0
 20 19  1  0
 21 20  1  0
 22 20  2  0
 23 22  1  0
 24 22  1  0
 25 24  2  0
 25 18  1  0
 26 25  1  0
 26 12  1  0
 27  5  2  0
 28 27  1  0
 28  4  2  0
 29 28  1  0
 30 29  2  0
 30  2  1  0
 31 30  1  0
 32 31  1  0
 33 32  1  0
 34 33  1  0
 35 34  1  0
 35 36  1  6
 37 35  1  0
 38 37  1  0
 39 38  1  0
 40 35  1  0
 41 40  1  0
 42 41  1  0
M  CHG  1  35   1
M  END
$$$$
