U7F
     RDKit          3D

 22 22  0  0  0  0  0  0  0  0999 V2000
   58.3670   36.3020   22.8280 C   0  0  0  0  0  0  0  0  0  0  0  0
   61.2110   38.2490   21.2850 C   0  0  2  0  0  0  0  0  0  0  0  0
   58.7110   38.2500   20.8980 C   0  0  0  0  0  0  0  0  0  0  0  0
   52.4390   38.6710   25.5090 C   0  0  0  0  0  0  0  0  0  0  0  0
   52.8520   37.3270   24.9150 C   0  0  2  0  0  0  0  0  0  0  0  0
   54.3050   37.0510   25.3020 C   0  0  0  0  0  0  0  0  0  0  0  0
   52.6270   37.4090   23.4050 C   0  0  0  0  0  0  0  0  0  0  0  0
   53.4410   36.3300   22.7070 C   0  0  2  0  0  0  0  0  0  0  0  0
   54.7470   36.9950   22.3030 C   0  0  0  0  0  0  0  0  0  0  0  0
   57.2700   36.8000   22.1520 C   0  0  0  0  0  0  0  0  0  0  0  0
   59.6320   36.7730   22.5490 C   0  0  0  0  0  0  0  0  0  0  0  0
   59.8040   37.7460   21.5860 C   0  0  0  0  0  0  0  0  0  0  0  0
   57.4360   37.7740   21.1760 C   0  0  0  0  0  0  0  0  0  0  0  0
   61.4080   39.4440   21.9080 F   0  0  0  0  0  0  0  0  0  0  0  0
   61.3670   38.4060   19.9400 F   0  0  0  0  0  0  0  0  0  0  0  0
   62.1150   37.3220   21.7200 F   0  0  0  0  0  0  0  0  0  0  0  0
   55.9720   36.2540   22.4900 N   0  0  0  0  0  0  0  0  0  0  0  0
   54.7430   38.1020   21.8810 O   0  0  0  0  0  0  0  0  0  0  0  0
   53.3180   34.6750   20.4820 O   0  0  0  0  0  0  0  0  0  0  0  0
   51.2920   35.0090   21.5540 O   0  0  0  0  0  0  0  0  0  0  0  0
   52.2310   36.6940   20.2520 O   0  0  0  0  0  0  0  0  0  0  0  0
   52.5540   35.6710   21.2280 P   0  0  0  0  0  0  0  0  0  0  0  0
  5  4  1  1
  6  5  1  0
  7  5  1  0
  8  7  1  6
  9  8  1  0
 10  1  2  0
 11  1  1  0
 12 11  2  0
 12  3  1  0
 12  2  1  0
 13 10  1  0
 13  3  2  0
  2 14  1  1
 15  2  1  0
 16  2  1  0
 17 10  1  0
 17  9  1  0
 18  9  2  0
 22 21  2  0
 22 20  1  0
 22 19  1  0
 22  8  1  0
M  END
$$$$
