XI5
     RDKit          3D

 28 28  0  0  0  0  0  0  0  0999 V2000
   57.0000   32.9110   12.5610 C   0  0  0  0  0  0  0  0  0  0  0  0
   56.7430   32.3100   13.9310 C   0  0  0  0  0  0  0  0  0  0  0  0
   56.5310   33.2150   15.1400 C   0  0  0  0  0  0  0  0  0  0  0  0
   57.1850   34.4410   15.2060 C   0  0  0  0  0  0  0  0  0  0  0  0
   57.0130   35.2680   16.3070 C   0  0  0  0  0  0  0  0  0  0  0  0
   56.1720   34.8640   17.3360 C   0  0  0  0  0  0  0  0  0  0  0  0
   56.8970   36.6600   19.0110 C   0  0  0  0  0  0  0  0  0  0  0  0
   56.5200   37.3910   20.3110 C   0  0  2  0  0  0  0  0  0  0  0  0
   57.6980   37.5760   21.2520 C   0  0  1  0  0  0  0  0  0  0  0  0
   57.5220   38.9110   21.9860 C   0  0  0  0  0  0  0  0  0  0  0  0
   57.8580   36.4350   22.2510 C   0  0  0  0  0  0  0  0  0  0  0  0
   54.2040   37.1350   21.2260 C   0  0  0  0  0  0  0  0  0  0  0  0
   53.1160   36.2280   21.7910 C   0  0  1  0  0  0  0  0  0  0  0  0
   52.2470   36.9950   22.7850 C   0  0  0  0  0  0  0  0  0  0  0  0
   53.0550   37.5190   23.9690 C   0  0  1  0  0  0  0  0  0  0  0  0
   52.0920   38.3290   24.8330 C   0  0  0  0  0  0  0  0  0  0  0  0
   53.8430   36.4360   24.7200 C   0  0  0  0  0  0  0  0  0  0  0  0
   55.5210   33.6380   17.2720 C   0  0  0  0  0  0  0  0  0  0  0  0
   55.6960   32.8130   16.1720 C   0  0  0  0  0  0  0  0  0  0  0  0
   55.9590   35.6640   18.5230 N   0  0  0  0  0  0  0  0  0  0  0  0
   55.4670   36.5440   20.8940 N   0  0  0  0  0  0  0  0  0  0  0  0
   53.0150   35.1860   19.2010 O   0  0  0  0  0  0  0  0  0  0  0  0
   50.8380   36.1670   19.9030 O   0  0  0  0  0  0  0  0  0  0  0  0
   51.7340   34.1160   20.9710 O   0  0  0  0  0  0  0  0  0  0  0  0
   54.0470   38.3120   21.1050 O   0  0  0  0  0  0  0  0  0  0  0  0
   57.9060   36.9000   18.4430 O   0  0  0  0  0  0  0  0  0  0  0  0
   56.7420   31.1330   14.0640 O   0  0  0  0  0  0  0  0  0  0  0  0
   52.1220   35.4780   20.3930 P   0  0  0  0  0  0  0  0  0  0  0  0
  2  1  1  0
  3  2  1  0
  4  3  2  0
  5  4  1  0
  6  5  2  0
  8  7  1  0
  9  8  1  0
  9 10  1  1
 11  9  1  0
 13 12  1  0
 13 14  1  1
 15 14  1  0
 15 16  1  1
 17 15  1  0
 18  6  1  0
 19  3  1  0
 19 18  2  0
 20  7  1  0
 20  6  1  0
 21 12  1  0
  8 21  1  1
 25 12  2  0
 26  7  2  0
 27  2  2  0
 28 24  2  0
 28 23  1  0
 28 22  1  0
 28 13  1  0
M  END
$$$$
