A1IEX
     RDKit          3D

 27 27  0  0  0  0  0  0  0  0999 V2000
   57.6250   36.5720   20.2290 C   0  0  0  0  0  0  0  0  0  0  0  0
   58.1050   37.7650   19.5880 N   0  0  0  0  0  0  0  0  0  0  0  0
   58.6570   37.8060   18.2540 C   0  0  0  0  0  0  0  0  0  0  0  0
   59.6220   39.1910   16.5590 C   0  0  0  0  0  0  0  0  0  0  0  0
   58.8170   36.6770   17.4750 C   0  0  0  0  0  0  0  0  0  0  0  0
   58.2190   36.2880   22.6160 C   0  0  1  0  0  0  0  0  0  0  0  0
   57.9480   36.5250   24.1080 C   0  0  0  0  0  0  0  0  0  0  0  0
   52.7460   38.5930   25.7540 C   0  0  0  0  0  0  0  0  0  0  0  0
   53.5480   37.6170   24.8930 C   0  0  1  0  0  0  0  0  0  0  0  0
   53.9460   36.3730   25.6840 C   0  0  0  0  0  0  0  0  0  0  0  0
   52.7320   37.2910   23.6300 C   0  0  0  0  0  0  0  0  0  0  0  0
   53.4800   36.4290   22.6150 C   0  0  2  0  0  0  0  0  0  0  0  0
   54.7380   37.1520   22.1770 C   0  0  0  0  0  0  0  0  0  0  0  0
   57.1440   36.7850   21.6260 C   0  0  2  0  0  0  0  0  0  0  0  0
   59.0690   39.0460   17.8060 C   0  0  0  0  0  0  0  0  0  0  0  0
   59.7670   38.0850   15.7610 C   0  0  0  0  0  0  0  0  0  0  0  0
   59.3690   36.8250   16.2120 C   0  0  0  0  0  0  0  0  0  0  0  0
   59.6490   36.7370   22.2790 C   0  0  0  0  0  0  0  0  0  0  0  0
   55.8530   36.2640   21.9530 N   0  0  0  0  0  0  0  0  0  0  0  0
   54.7800   38.3460   22.0290 O   0  0  0  0  0  0  0  0  0  0  0  0
   57.6360   35.4690   19.7950 O   0  0  0  0  0  0  0  0  0  0  0  0
   53.4340   35.0630   20.3030 O   0  0  0  0  0  0  0  0  0  0  0  0
   52.2930   37.1580   20.3130 O   0  0  0  0  0  0  0  0  0  0  0  0
   51.2790   35.2150   21.5750 O   0  0  0  0  0  0  0  0  0  0  0  0
   52.5240   35.9350   21.1360 P   0  0  0  0  0  0  0  0  0  0  0  0
   60.4940   38.3870   14.1650 Cl  0  0  0  0  0  0  0  0  0  0  0  0
   59.5530   35.3760   15.1880 Cl  0  0  0  0  0  0  0  0  0  0  0  0
  2  1  1  0
  3  2  1  0
  5  3  2  0
  6  7  1  1
  9  8  1  1
 10  9  1  0
 11  9  1  0
 12 11  1  1
 13 12  1  0
 14  1  1  0
 14  6  1  0
 15  3  1  0
 15  4  2  0
 16  4  1  0
 17 16  2  0
 17  5  1  0
 18  6  1  0
 14 19  1  6
 19 13  1  0
 20 13  2  0
 21  1  2  0
 25 24  2  0
 25 23  1  0
 25 22  1  0
 25 12  1  0
 26 16  1  0
 27 17  1  0
M  END
$$$$
