A1IEU
     RDKit          3D

 31 32  0  0  0  0  0  0  0  0999 V2000
   55.8740   36.3630   21.7020 N   0  0  0  0  0  0  0  0  0  0  0  0
   57.1040   36.9860   21.3000 C   0  0  2  0  0  0  0  0  0  0  0  0
   59.6020   36.4360   21.4730 C   0  0  0  0  0  0  0  0  0  0  0  0
   61.6050   37.7380   21.7160 C   0  0  0  0  0  0  0  0  0  0  0  0
   57.3480   36.9740   19.8250 C   0  0  0  0  0  0  0  0  0  0  0  0
   58.6310   37.3050   17.1520 C   0  0  0  0  0  0  0  0  0  0  0  0
   54.7600   37.2150   21.9610 C   0  0  0  0  0  0  0  0  0  0  0  0
   53.5070   36.4710   22.4450 C   0  0  1  0  0  0  0  0  0  0  0  0
   52.7910   37.3780   23.3990 C   0  0  0  0  0  0  0  0  0  0  0  0
   53.6410   37.8340   24.5970 C   0  0  1  0  0  0  0  0  0  0  0  0
   52.8290   38.8210   25.4500 C   0  0  0  0  0  0  0  0  0  0  0  0
   54.1500   36.6760   25.4670 C   0  0  0  0  0  0  0  0  0  0  0  0
   58.2220   36.0760   21.9570 C   0  0  0  0  0  0  0  0  0  0  0  0
   60.3280   37.3540   22.1850 C   0  0  0  0  0  0  0  0  0  0  0  0
   62.0510   37.1480   20.5500 C   0  0  0  0  0  0  0  0  0  0  0  0
   61.2510   36.2300   19.8950 C   0  0  0  0  0  0  0  0  0  0  0  0
   58.5960   38.3170   18.0810 C   0  0  0  0  0  0  0  0  0  0  0  0
   59.2920   37.5310   15.9480 C   0  0  0  0  0  0  0  0  0  0  0  0
   59.8980   38.7240   15.7340 C   0  0  0  0  0  0  0  0  0  0  0  0
   59.9130   39.7010   16.6810 C   0  0  0  0  0  0  0  0  0  0  0  0
   59.2980   39.4830   17.9010 C   0  0  0  0  0  0  0  0  0  0  0  0
   60.0580   35.8970   20.3620 N   0  0  0  0  0  0  0  0  0  0  0  0
   58.0190   38.1290   19.3690 N   0  0  0  0  0  0  0  0  0  0  0  0
   54.8530   38.4280   21.8130 O   0  0  0  0  0  0  0  0  0  0  0  0
   53.2650   34.9230   20.2040 O   0  0  0  0  0  0  0  0  0  0  0  0
   52.2550   36.9150   20.1320 O   0  0  0  0  0  0  0  0  0  0  0  0
   51.1980   35.3520   21.6920 O   0  0  0  0  0  0  0  0  0  0  0  0
   57.0220   36.1150   19.0660 O   0  0  0  0  0  0  0  0  0  0  0  0
   52.4710   35.8470   21.1270 P   0  0  0  0  0  0  0  0  0  0  0  0
   59.2700   36.2690   14.7480 Cl  0  0  0  0  0  0  0  0  0  0  0  0
   60.7020   39.0090   14.1930 Cl  0  0  0  0  0  0  0  0  0  0  0  0
  2  1  1  0
  5  2  1  0
  7  1  1  0
  8  7  1  0
  8  9  1  1
 10  9  1  0
 10 11  1  1
 12 10  1  0
 13  3  1  0
  2 13  1  1
 14  3  1  0
 14  4  2  0
 15  4  1  0
 16 15  2  0
 17  6  2  0
 18  6  1  0
 19 18  2  0
 20 19  1  0
 21 20  2  0
 21 17  1  0
 22  3  2  0
 22 16  1  0
 23  5  1  0
 23 17  1  0
 24  7  2  0
 28  5  2  0
 29 27  2  0
 29 26  1  0
 29 25  1  0
 29  8  1  0
 30 18  1  0
 31 19  1  0
M  END
$$$$
