A1IJJ
     RDKit          3D

 31 32  0  0  0  0  0  0  0  0999 V2000
   54.8690   36.5100   20.8750 N   0  0  0  0  0  0  0  0  0  0  0  0
   55.9680   37.3730   20.4820 C   0  0  2  0  0  0  0  0  0  0  0  0
   56.4710   37.4560   22.9400 C   0  0  0  0  0  0  0  0  0  0  0  0
   55.1990   38.7790   24.5010 C   0  0  0  0  0  0  0  0  0  0  0  0
   56.4790   36.8480   19.1450 C   0  0  0  0  0  0  0  0  0  0  0  0
   55.9050   33.8200   17.0940 C   0  0  0  0  0  0  0  0  0  0  0  0
   53.5230   37.0120   21.0630 C   0  0  0  0  0  0  0  0  0  0  0  0
   52.4060   36.0430   21.4480 C   0  0  2  0  0  0  0  0  0  0  0  0
   52.9090   34.8840   22.2860 C   0  0  0  0  0  0  0  0  0  0  0  0
   52.7350   35.0980   23.7790 C   0  0  1  0  0  0  0  0  0  0  0  0
   53.8750   34.3950   24.5130 C   0  0  0  0  0  0  0  0  0  0  0  0
   52.6670   36.5480   24.2330 C   0  0  0  0  0  0  0  0  0  0  0  0
   57.0500   37.2520   21.5370 C   0  0  0  0  0  0  0  0  0  0  0  0
   55.7180   38.5910   23.2230 C   0  0  0  0  0  0  0  0  0  0  0  0
   55.4540   37.8010   25.4580 C   0  0  0  0  0  0  0  0  0  0  0  0
   56.2120   36.6920   25.1010 C   0  0  0  0  0  0  0  0  0  0  0  0
   56.1300   35.1800   17.2440 C   0  0  0  0  0  0  0  0  0  0  0  0
   56.2600   33.1810   15.9170 C   0  0  0  0  0  0  0  0  0  0  0  0
   56.8490   33.9010   14.8880 C   0  0  0  0  0  0  0  0  0  0  0  0
   57.0730   35.2650   15.0400 C   0  0  0  0  0  0  0  0  0  0  0  0
   56.7200   35.9100   16.2200 C   0  0  0  0  0  0  0  0  0  0  0  0
   56.6940   36.5490   23.8760 N   0  0  0  0  0  0  0  0  0  0  0  0
   55.7310   35.7800   18.5030 N   0  0  0  0  0  0  0  0  0  0  0  0
   53.3040   38.1680   20.9160 O   0  0  0  0  0  0  0  0  0  0  0  0
   51.2120   36.5300   19.0000 O   0  0  0  0  0  0  0  0  0  0  0  0
   50.4860   34.4830   20.1650 O   0  0  0  0  0  0  0  0  0  0  0  0
   52.6990   34.5930   19.1480 O   0  0  0  0  0  0  0  0  0  0  0  0
   57.4580   37.2980   18.6540 O   0  0  0  0  0  0  0  0  0  0  0  0
   51.6510   35.3890   19.8790 P   0  0  0  0  0  0  0  0  0  0  0  0
   55.9600   31.4300   15.7460 Cl  0  0  0  0  0  0  0  0  0  0  0  0
   57.3170   33.0750   13.3710 Cl  0  0  0  0  0  0  0  0  0  0  0  0
  2  1  1  0
  5  2  1  0
  7  1  1  0
  8  7  1  0
  8  9  1  1
 10  9  1  0
 10 11  1  1
 12 10  1  0
  2 13  1  1
 13  3  1  0
 14  3  1  0
 14  4  2  0
 15  4  1  0
 16 15  2  0
 17  6  2  0
 18  6  1  0
 19 18  2  0
 20 19  1  0
 21 20  2  0
 21 17  1  0
 22 16  1  0
 22  3  2  0
 23 17  1  0
 23  5  1  0
 24  7  2  0
 28  5  2  0
 29 27  2  0
 29 26  1  0
 29 25  1  0
 29  8  1  0
 30 18  1  0
 31 19  1  0
M  END
$$$$
