A1IFN
     RDKit          3D

 31 31  0  0  0  0  0  0  0  0999 V2000
   55.8170   36.7600   21.9920 N   0  0  0  0  0  0  0  0  0  0  0  0
   56.9630   37.5000   21.6670 C   0  0  2  0  0  0  0  0  0  0  0  0
   58.5610   38.2520   17.5150 C   0  0  0  0  0  0  0  0  0  0  0  0
   61.5650   39.6190   15.5380 C   0  0  0  0  0  0  0  0  0  0  0  0
   62.5100   38.4310   15.3710 C   0  0  2  0  0  0  0  0  0  0  0  0
   60.8170   39.8700   17.7700 C   0  0  0  0  0  0  0  0  0  0  0  0
   54.6330   37.4930   22.1690 C   0  0  0  0  0  0  0  0  0  0  0  0
   53.4350   36.6960   22.6620 C   0  0  1  0  0  0  0  0  0  0  0  0
   52.6750   37.5490   23.6460 C   0  0  0  0  0  0  0  0  0  0  0  0
   53.4940   38.0240   24.8450 C   0  0  2  0  0  0  0  0  0  0  0  0
   54.1100   36.8950   25.6640 C   0  0  0  0  0  0  0  0  0  0  0  0
   52.6580   38.9570   25.6990 C   0  0  0  0  0  0  0  0  0  0  0  0
   57.3350   37.5990   20.2280 C   0  0  0  0  0  0  0  0  0  0  0  0
   58.7950   38.9320   18.6910 C   0  0  0  0  0  0  0  0  0  0  0  0
   59.3810   38.5060   16.4050 C   0  0  0  0  0  0  0  0  0  0  0  0
   60.4850   39.3280   16.5470 C   0  0  0  0  0  0  0  0  0  0  0  0
   59.9830   39.6460   18.8430 C   0  0  0  0  0  0  0  0  0  0  0  0
   58.1450   36.6310   22.3170 C   0  0  1  0  0  0  0  0  0  0  0  0
   59.5320   37.1630   21.9750 C   0  0  0  0  0  0  0  0  0  0  0  0
   58.0350   36.4570   23.8330 C   0  0  0  0  0  0  0  0  0  0  0  0
   61.9880   37.1940   15.3750 F   0  0  0  0  0  0  0  0  0  0  0  0
   63.2610   38.5400   16.4720 F   0  0  0  0  0  0  0  0  0  0  0  0
   63.2760   38.5400   14.3030 F   0  0  0  0  0  0  0  0  0  0  0  0
   58.1100   38.7540   19.9610 N   0  0  0  0  0  0  0  0  0  0  0  0
   54.6280   38.6450   21.9530 O   0  0  0  0  0  0  0  0  0  0  0  0
   52.0780   37.0040   20.4380 O   0  0  0  0  0  0  0  0  0  0  0  0
   53.2890   34.9270   20.6110 O   0  0  0  0  0  0  0  0  0  0  0  0
   51.1920   35.3800   22.0140 O   0  0  0  0  0  0  0  0  0  0  0  0
   61.9030   40.7320   15.2280 O   0  0  0  0  0  0  0  0  0  0  0  0
   57.0110   36.7920   19.4560 O   0  0  0  0  0  0  0  0  0  0  0  0
   52.4580   35.9320   21.3770 P   0  0  0  0  0  0  0  0  0  0  0  0
  2  1  1  6
  5  4  1  0
  7  1  1  0
  8  7  1  0
  8  9  1  6
 10  9  1  0
 10 11  1  1
 12 10  1  0
 13  2  1  0
 14  3  2  0
 15  3  1  0
 16 15  2  0
 16  4  1  0
 16  6  1  0
 17 14  1  0
 17  6  2  0
 18  2  1  0
 18 19  1  1
 20 18  1  0
  5 21  1  1
 22  5  1  0
 23  5  1  0
 24 13  1  0
 24 14  1  0
 25  7  2  0
 29  4  2  0
 30 13  2  0
 31 27  2  0
 31 26  1  0
 31 28  1  0
 31  8  1  0
M  END
$$$$
