A1IFU
     RDKit          3D

 25 26  0  0  0  0  0  0  0  0999 V2000
   57.3910   38.2010   21.0930 C   0  0  0  0  0  0  0  0  0  0  0  0
   55.8390   36.5440   22.1740 N   0  0  0  0  0  0  0  0  0  0  0  0
   54.6730   37.3120   22.1960 C   0  0  0  0  0  0  0  0  0  0  0  0
   53.4520   37.9760   24.7760 C   0  0  2  0  0  0  0  0  0  0  0  0
   54.0610   36.8930   25.6890 C   0  0  0  0  0  0  0  0  0  0  0  0
   52.5750   38.9270   25.6240 C   0  0  0  0  0  0  0  0  0  0  0  0
   58.1930   36.5000   22.6250 C   0  0  0  0  0  0  0  0  0  0  0  0
   63.7060   39.6470   21.2920 C   0  0  0  0  0  0  0  0  0  0  0  0
   62.6340   40.5250   21.2860 C   0  0  0  0  0  0  0  0  0  0  0  0
   61.3450   40.0050   21.3750 C   0  0  0  0  0  0  0  0  0  0  0  0
   63.5340   38.2840   21.3850 C   0  0  0  0  0  0  0  0  0  0  0  0
   62.2450   37.7810   21.4840 C   0  0  0  0  0  0  0  0  0  0  0  0
   61.1700   38.6320   21.4600 C   0  0  0  0  0  0  0  0  0  0  0  0
   59.7450   38.0730   21.5990 C   0  0  0  0  0  0  0  0  0  0  0  0
   58.6930   38.6940   20.9400 C   0  0  0  0  0  0  0  0  0  0  0  0
   57.1560   37.0870   21.8920 C   0  0  0  0  0  0  0  0  0  0  0  0
   53.4870   36.5160   22.6630 C   0  0  1  0  0  0  0  0  0  0  0  0
   52.6560   37.4050   23.6100 C   0  0  0  0  0  0  0  0  0  0  0  0
   59.4950   36.9910   22.4520 C   0  0  0  0  0  0  0  0  0  0  0  0
   53.4170   35.0650   20.4210 O   0  0  0  0  0  0  0  0  0  0  0  0
   51.3390   35.0970   21.8800 O   0  0  0  0  0  0  0  0  0  0  0  0
   51.9620   37.0690   20.4770 O   0  0  0  0  0  0  0  0  0  0  0  0
   54.6140   38.4810   21.8880 O   0  0  0  0  0  0  0  0  0  0  0  0
   52.4980   35.8690   21.2890 P   0  0  0  0  0  0  0  0  0  0  0  0
   65.3620   40.3090   21.2080 Cl  0  0  0  0  0  0  0  0  0  0  0  0
  3  2  1  0
  4  5  1  1
  6  4  1  0
  9  8  2  0
 10  9  1  0
 11  8  1  0
 12 11  2  0
 13 12  1  0
 13 10  2  0
 14 13  1  0
 15 14  1  0
 15  1  2  0
 16  7  2  0
 16  2  1  0
 16  1  1  0
 17  3  1  0
 17 18  1  1
 18  4  1  0
 19 14  2  0
 19  7  1  0
 23  3  2  0
 24 22  2  0
 24 20  1  0
 24 21  1  0
 24 17  1  0
 25  8  1  0
M  END
$$$$
