A1IFZ
     RDKit          3D

 30 31  0  0  0  0  0  0  0  0999 V2000
   54.0570   36.9510   25.7040 C   0  0  0  0  0  0  0  0  0  0  0  0
   55.8380   36.6630   22.2410 N   0  0  0  0  0  0  0  0  0  0  0  0
   57.1150   37.1770   21.7810 C   0  0  0  0  0  0  0  0  0  0  0  0
   59.5210   37.0310   21.8720 C   0  0  0  0  0  0  0  0  0  0  0  0
   58.4470   38.6010   20.3940 C   0  0  0  0  0  0  0  0  0  0  0  0
   62.4720   39.4890   22.4530 C   0  0  0  0  0  0  0  0  0  0  0  0
   62.3040   40.8040   22.0730 C   0  0  0  0  0  0  0  0  0  0  0  0
   62.5450   41.4520   24.3580 C   0  0  0  0  0  0  0  0  0  0  0  0
   62.7070   40.1190   24.7400 C   0  0  0  0  0  0  0  0  0  0  0  0
   62.6650   39.1330   23.7740 C   0  0  0  0  0  0  0  0  0  0  0  0
   54.6190   37.4060   22.2220 C   0  0  0  0  0  0  0  0  0  0  0  0
   53.4390   36.6160   22.7870 C   0  0  1  0  0  0  0  0  0  0  0  0
   52.6630   37.4910   23.7480 C   0  0  0  0  0  0  0  0  0  0  0  0
   53.4480   38.0940   24.8910 C   0  0  1  0  0  0  0  0  0  0  0  0
   52.5790   38.9720   25.7780 C   0  0  0  0  0  0  0  0  0  0  0  0
   58.2590   36.5990   22.2990 C   0  0  0  0  0  0  0  0  0  0  0  0
   57.1980   38.1640   20.8250 C   0  0  0  0  0  0  0  0  0  0  0  0
   59.6070   38.0420   20.9200 C   0  0  0  0  0  0  0  0  0  0  0  0
   62.3490   41.7910   23.0310 C   0  0  0  0  0  0  0  0  0  0  0  0
   60.8870   38.5290   20.4230 N   0  0  0  0  0  0  0  0  0  0  0  0
   54.5190   38.5600   21.8650 O   0  0  0  0  0  0  0  0  0  0  0  0
   53.3660   35.0600   20.5840 O   0  0  0  0  0  0  0  0  0  0  0  0
   51.8830   37.1500   20.5130 O   0  0  0  0  0  0  0  0  0  0  0  0
   51.2500   35.2390   21.8890 O   0  0  0  0  0  0  0  0  0  0  0  0
   63.5200   38.2900   20.2460 O   0  0  0  0  0  0  0  0  0  0  0  0
   62.5010   36.8730   21.7580 O   0  0  0  0  0  0  0  0  0  0  0  0
   52.4320   36.0190   21.3550 P   0  0  0  0  0  0  0  0  0  0  0  0
   62.3840   38.2180   21.1760 S   0  0  1  0  0  0  0  0  0  0  0  0
   62.5830   42.7970   25.5220 Cl  0  0  0  0  0  0  0  0  0  0  0  0
   62.9650   39.6150   26.4370 Cl  0  0  0  0  0  0  0  0  0  0  0  0
  3  2  1  0
  7  6  2  0
  9  8  1  0
 10  9  2  0
 10  6  1  0
 11  2  1  0
 12 11  1  0
 12 13  1  1
 14 13  1  0
 14  1  1  1
 15 14  1  0
 16  3  2  0
 16  4  1  0
 17  3  1  0
 17  5  2  0
 18  4  2  0
 18  5  1  0
 19  8  2  0
 19  7  1  0
 20 18  1  0
 21 11  2  0
 27 23  2  0
 27 22  1  0
 27 24  1  0
 27 12  1  0
 28 26  2  0
 28 25  2  0
 28 20  1  6
 28  6  1  0
 29  8  1  0
 30  9  1  0
M  END
$$$$
