A1IFY
     RDKit          3D

 28 29  0  0  0  0  0  0  0  0999 V2000
   52.6200   38.9500   25.6500 C   0  0  0  0  0  0  0  0  0  0  0  0
   55.8600   36.4050   22.2740 N   0  0  0  0  0  0  0  0  0  0  0  0
   57.2090   36.8470   21.9840 C   0  0  0  0  0  0  0  0  0  0  0  0
   62.2920   37.0040   21.7140 C   0  0  0  0  0  0  0  0  0  0  0  0
   63.6230   37.4190   21.6570 C   0  0  0  0  0  0  0  0  0  0  0  0
   63.9420   38.7520   21.5490 C   0  0  0  0  0  0  0  0  0  0  0  0
   66.0610   39.0830   20.3690 C   0  0  1  0  0  0  0  0  0  0  0  0
   66.6110   37.6650   20.2280 C   0  0  0  0  0  0  0  0  0  0  0  0
   61.5970   39.2720   21.5400 C   0  0  0  0  0  0  0  0  0  0  0  0
   54.7320   37.2390   22.2320 C   0  0  0  0  0  0  0  0  0  0  0  0
   53.5380   36.4850   22.7100 C   0  0  1  0  0  0  0  0  0  0  0  0
   52.8000   37.4330   23.6720 C   0  0  0  0  0  0  0  0  0  0  0  0
   53.5600   38.0130   24.8730 C   0  0  2  0  0  0  0  0  0  0  0  0
   54.1600   36.8900   25.7120 C   0  0  0  0  0  0  0  0  0  0  0  0
   57.5200   37.8950   21.1360 C   0  0  0  0  0  0  0  0  0  0  0  0
   58.2060   36.2210   22.6740 C   0  0  0  0  0  0  0  0  0  0  0  0
   59.7710   37.5650   21.6730 C   0  0  0  0  0  0  0  0  0  0  0  0
   61.2660   37.9240   21.6010 C   0  0  0  0  0  0  0  0  0  0  0  0
   65.2000   39.5100   19.1910 C   0  0  0  0  0  0  0  0  0  0  0  0
   62.9220   39.6850   21.5070 C   0  0  0  0  0  0  0  0  0  0  0  0
   58.8180   38.2150   20.9930 N   0  0  0  0  0  0  0  0  0  0  0  0
   59.4790   36.5790   22.4540 N   0  0  0  0  0  0  0  0  0  0  0  0
   54.7660   38.4090   21.9020 O   0  0  0  0  0  0  0  0  0  0  0  0
   51.3840   35.1620   21.9060 O   0  0  0  0  0  0  0  0  0  0  0  0
   52.0220   37.1590   20.5520 O   0  0  0  0  0  0  0  0  0  0  0  0
   53.4710   35.0580   20.4430 O   0  0  0  0  0  0  0  0  0  0  0  0
   65.2920   39.1640   21.5350 O   0  0  0  0  0  0  0  0  0  0  0  0
   52.5330   35.9070   21.3240 P   0  0  0  0  0  0  0  0  0  0  0  0
  3  2  1  0
  5  4  2  0
  6  5  1  0
  7  8  1  6
 10  2  1  0
 11 10  1  0
 11 12  1  1
 13 12  1  0
 13  1  1  1
 14 13  1  0
 15  3  2  0
 16  3  1  0
 18 17  1  0
 18  4  1  0
 18  9  2  0
 19  7  1  0
 20  9  1  0
 20  6  2  0
 21 17  2  0
 21 15  1  0
 22 17  1  0
 22 16  2  0
 23 10  2  0
 27  6  1  0
 27  7  1  0
 28 26  2  0
 28 25  1  0
 28 24  1  0
 28 11  1  0
M  END
$$$$
