A1IM0
     RDKit          3D

 24 25  0  0  0  0  0  0  0  0999 V2000
   61.3690   35.6730   19.8540 C   0  0  0  0  0  0  0  0  0  0  0  0
   62.7370   33.9300   20.7840 C   0  0  0  0  0  0  0  0  0  0  0  0
   58.2510   36.0960   19.3620 C   0  0  0  0  0  0  0  0  0  0  0  0
   57.1490   36.6160   19.6330 C   0  0  0  0  0  0  0  0  0  0  0  0
   52.5750   36.7280   22.2440 C   0  0  0  0  0  0  0  0  0  0  0  0
   53.8490   36.6550   23.0510 C   0  0  2  0  0  0  0  0  0  0  0  0
   53.5990   37.2940   24.4180 C   0  0  0  0  0  0  0  0  0  0  0  0
   54.8590   37.3840   25.2920 C   0  0  2  0  0  0  0  0  0  0  0  0
   55.4810   36.0190   25.5220 C   0  0  0  0  0  0  0  0  0  0  0  0
   54.5690   38.0720   26.6280 C   0  0  0  0  0  0  0  0  0  0  0  0
   54.9450   37.4150   22.3610 C   0  0  0  0  0  0  0  0  0  0  0  0
   57.2340   37.2140   21.1980 C   0  0  2  0  0  0  0  0  0  0  0  0
   58.2530   36.8050   21.7490 C   0  0  0  0  0  0  0  0  0  0  0  0
   60.3430   35.3220   20.7260 C   0  0  0  0  0  0  0  0  0  0  0  0
   62.5770   34.9800   19.8990 C   0  0  0  0  0  0  0  0  0  0  0  0
   61.6950   33.5880   21.6390 C   0  0  0  0  0  0  0  0  0  0  0  0
   60.5030   34.2710   21.6070 C   0  0  0  0  0  0  0  0  0  0  0  0
   51.7590   35.5750   22.3440 N   0  0  0  0  0  0  0  0  0  0  0  0
   56.0200   36.6170   21.9190 N   0  0  0  0  0  0  0  0  0  0  0  0
   59.0750   36.0170   20.6500 N   0  0  0  0  0  0  0  0  0  0  0  0
   50.5290   35.5820   21.7090 O   0  0  0  0  0  0  0  0  0  0  0  0
   58.5710   36.9750   22.8700 O   0  0  0  0  0  0  0  0  0  0  0  0
   54.8890   38.5830   22.2250 O   0  0  0  0  0  0  0  0  0  0  0  0
   52.2210   37.6420   21.5570 O   0  0  0  0  0  0  0  0  0  0  0  0
  4  3  1  0
  6  5  1  0
  6  7  1  1
  8  7  1  0
  8  9  1  1
 10  8  1  0
 11  6  1  0
 12  4  1  0
 13 12  1  0
 14  1  2  0
 15  2  2  0
 15  1  1  0
 16  2  1  0
 17 16  2  0
 17 14  1  0
 18  5  1  0
 12 19  1  1
 19 11  1  0
 20 13  1  0
 20  3  1  0
 20 14  1  0
 21 18  1  0
 22 13  2  0
 23 11  2  0
 24  5  2  0
M  END
$$$$
